/*--------------------------------*- C++ -*----------------------------------*\
| =========                 |                                                 |
| \\      /  F ield         | OpenFOAM: The Open Source CFD Toolbox           |
|  \\    /   O peration     | Version:  2.3.1                                 |
|   \\  /    A nd           | Web:      www.OpenFOAM.org                      |
|    \\/     M anipulation  |                                                 |
\*---------------------------------------------------------------------------*/
FoamFile
{
    version     2.0;
    format      binary;
    class       dictionary;
    location    "constant";
    object      SprayCloudProperties;
}
// * * * * * * * * * * * * * * * * * * * * * * * * * * * * * * * * * * * * * //

solution
{
    active          true;
    coupled         true;
    transient       yes;
    cellValueSourceCorrection on;
    maxCo           0.3;

    sourceTerms
    {
        schemes
        {
            rho             explicit 1;
            U               explicit 1;
            Yi              explicit 1;
            h               explicit 1;
            radiation       explicit 1;
        }
    }

    interpolationSchemes
    {
        rho             cell;
        U               cellPoint;
        thermo:mu       cell;
        T               cell;
        Cp              cell;
        kappa           cell;
        p               cell;
    }

    integrationSchemes
    {
        U               Euler;
        T               analytical;
    }
}


constantProperties
{
    T0              403;

    // place holders for rho0 and Cp0
    // - reset from liquid properties using T0
    rho0            830;
    Cp0             2500;

    constantVolume  false;
}


subModels
{
    particleForces
    {
        sphereDrag;
    }

    injectionModels
    {
        model1
        {
            type            coneNozzleInjection;
            SOI             0;
            massTotal       4.5e-5;
            parcelBasisType mass;
            injectionMethod disc;
//            flowType        flowRateAndDischarge;
            flowType        pressureDrivenVelocity;
            Pinj            constant 100e+6;
            outerDiameter   3.0e-4;
            innerDiameter   0;
            duration        2e-3;
            position        ( 0 0 0.119 );
            direction       ( 0 0 -1 );
            parcelsPerSecond 20000000;
            flowRateProfile constant 1;

            Cd              constant 0.8;

            thetaInner      constant 0.0;
            thetaOuter      constant 10.0;

            sizeDistribution
            {
                type        RosinRammler;

                RosinRammlerDistribution
                {
                    minValue        3e-05;
                    maxValue        3e-04;
                    d               0.00015;
                    n               3;
                }
            }
        }
    }

    dispersionModel none;

    patchInteractionModel standardWallInteraction;

    heatTransferModel RanzMarshall;

    compositionModel singlePhaseMixture;

    phaseChangeModel liquidEvaporationBoil;

    surfaceFilmModel none;

    atomizationModel none;

    breakupModel     ReitzKHRT;

    stochasticCollisionModel none;

    radiation       off;

    standardWallInteractionCoeffs
    {
        type            rebound;
    }

    RanzMarshallCoeffs
    {
        BirdCorrection  true;
    }

    singlePhaseMixtureCoeffs
    {
        phases
        (
            liquid
            {
				C9H12	   0.1169;
                C10H22     0.0734;
				DECALIN    0.2500;
                IC16H34    0.2819;
                NC16H34    0.2778;
            }
        );
    }

    liquidEvaporationBoilCoeffs
    {
        enthalpyTransfer enthalpyDifference;

        activeLiquids    ( IC16H34 NC16H34 C10H22 DECALIN C9H12);
    }

    ReitzDiwakarCoeffs
    {
        solveOscillationEq yes;
        Cbag            6;
        Cb              0.785;
        Cstrip          0.5;
        Cs              10;
    }


    ReitzKHRTCoeffs
    {
        solveOscillationEq yes;
        B0              0.61;
        B1              8;
        Ctau            2;
        CRT             0.1;
        msLimit         0.2;
        WeberLimit      6;
    }

    TABCoeffs
    {
        y0              0;
        yDot0           0;
        Cmu             10;
        Comega          8;
        WeCrit          12;
    }
}


cloudFunctions
{}


// ************************************************************************* //
