!!!!C10H12 A2CH3 HMN NC16H34 DEC IC12H26 NC12H26

ELEMENTS
C    H     O      N      AR      HE
END

SPECIES
HE           AR
O2           N2            CO2          H2O

!**************************NC10H22***********************************
C10H22

!**************************A2CH3***********************************
A2CH3


!**************************HMN***********************************
IC16H34


!**************************NC16H34***********************************
NC16H34

!**************************DEC***********************************
DECALIN

!**************************IC12H26***********************************
IC12H26

!**************************NC12H26***********************************
NC12H26
!**************************C9H12***********************************
C9H12
END
REACTIONS
 C10H22 + 15.5O2            => 10CO2 + 11H2O        5.00E+8  0.0   15780.0! 1
	FORD	/ C10H22	0.25 /
	FORD	/ O2 1.5 /
 A2CH3 + 13.5O2            => 11CO2 + 5H2O        5.00E+8  0.0   15780.0! 1
	FORD	/ A2CH3	0.25 /
	FORD	/ O2 1.5 /
 IC16H34 + 24.5O2            => 16CO2 + 17H2O        5.00E+8  0.0   15780.0! 1
	FORD	/ IC16H34	0.25 /
	FORD	/ O2 1.5 /
 NC16H34 + 24.5O2            => 16CO2 + 17H2O        5.00E+8  0.0   15780.0! 1
	FORD	/ NC16H34	0.25 /
	FORD	/ O2 1.5 /
 DECALIN + 14.5O2            => 10CO2 + 9H2O        5.00E+8  0.0   15780.0! 1
	FORD	/ DECALIN	0.25 /
	FORD	/ O2 1.5 /
 IC12H26 + 18.5O2            => 12CO2 + 13H2O        5.00E+8  0.0   15780.0! 1
	FORD	/ IC12H26	0.25 /
	FORD	/ O2 1.5 /
 NC12H26 + 18.5O2            => 12CO2 + 13H2O        5.00E+8  0.0   15780.0! 1
	FORD	/ NC12H26	0.25 /
	FORD	/ O2 1.5 /
 C9H12 + 12O2            => 9CO2 + 6H2O        5.00E+8  0.0   15780.0! 1
	FORD	/ C9H12	0.25 /
	FORD	/ O2 1.5 /
END